---- qbsp / ericw-tools 2.0.0-alpha8-64-gbbe39c7c ----

--- Options Summary ---
    "nocolor" was set to "1" (from command line)

Input file: C:\Users\Konig's Tracker\Downloads\quake-leveldesign-starterkit-20241231-windows\tools\ironwail\id1\maps\MultiplayerMap-compile.map
Output file: C:\Users\Konig's Tracker\Downloads\quake-leveldesign-starterkit-20241231-windows\tools\ironwail\id1\maps\MultiplayerMap.bsp

INFO: using built-in palette.
     20 entities
     11 unique textures
     68 texinfos
    744 unique planes

INFO: world extents calculated to 2749 units
    109 brushes
    653 sides
     43 side bevels

            0 texture frames added
Processing hull 0...
    109 SOLID brushes
    109 brushes total
    653 visible sides
INFO: calculating BSP for 109 brushes with 653 sides
    109 brushes
    653 visible faces
    2,700 nodes
    2,459 expensive split nodes
      241 mid-split nodes
    2,701 leaves
      930 EMPTY leafs
    1,771 SOLID leafs
    2,701 leafs total
    29 max tree height
    16 avg tree height
    10 tiny portals
    11,460 tree portals
    258 outside leaves
    0 detail filled leafs
    109 brushes
    482 visible faces
    171 non-visible faces
    2,475 nodes
      907 non-visible nodes
    2,475 expensive split nodes
    2,476 leaves
    1,055 EMPTY leafs
    1,421 SOLID leafs
    2,476 leafs total
    29 max tree height
    16 avg tree height
    14 tiny portals
    10,465 tree portals
    601 outside leaves
    0 detail filled leafs
    14 tiny portals
    10,465 tree portals
    1,853 sides visible
    1,853 makefaces
      537 merged
      459 subdivided
    1,372 nodes pruned
    5 tiny portals
      454 player-occupiable leaves
      454 clusters of leaves
    1,429 vis portals
      650 SOLID leafs
      454 EMPTY leafs
    1,104 leafs total
    28 max tree height
    15 avg tree height
        1 edges degenerated
    1,721 edges added by tjunctions
    1,765 faces optimized through MWT
    5,261 triangles computed from MWT
      458 faces created via optimization of MWT triangles
    4,873 edges
    2,233 faces
Processing hull 1...
Processing hull 2...
WARNING: worldspawn at 0 0 0 has long value for key wad (length 280 >= 127)
Writing MultiplayerMap.bsp as Quake BSP bsp29
Wrote MultiplayerMap.bsp

count   lump name    byte size 
      1 models               64
    810 planes            16200
   2591 vertexes          31092
   1103 nodes             26472
     52 texinfos           2080
   2233 faces             44660
   2640 clipnodes         21120
    455 leafs             12740
   2626 marksurfaces       5252
   4874 edges             19496
   9737 surfedges         38948
     11 textures         223528
        lightdata             0
        visdata               0
        entdata            1502

0.238s seconds elapsed


