---- qbsp / ericw-tools 2.0.0-alpha8-64-gbbe39c7c ----

--- Options Summary ---
    "nocolor" was set to "1" (from command line)

Input file: C:\Users\Konig's Tracker\Downloads\quake-leveldesign-starterkit-20241231-windows\tools\ironwail\id1\maps\MultiplayerMap-compile.map
Output file: C:\Users\Konig's Tracker\Downloads\quake-leveldesign-starterkit-20241231-windows\tools\ironwail\id1\maps\MultiplayerMap.bsp

INFO: using built-in palette.
     37 entities
      9 unique textures
     62 texinfos
    728 unique planes

INFO: world extents calculated to 2761 units
    150 brushes
    899 sides
    109 side bevels

            0 texture frames added
Processing hull 0...
    150 SOLID brushes
    150 brushes total
    899 visible sides
INFO: calculating BSP for 150 brushes with 899 sides
    150 brushes
    899 visible faces
    5,719 nodes
    4,852 expensive split nodes
      867 mid-split nodes
    5,720 leaves
    2,437 EMPTY leafs
    3,283 SOLID leafs
    5,720 leafs total
    29 max tree height
    16 avg tree height
    26 tiny portals
    22,422 tree portals
    724 outside leaves
    0 detail filled leafs
    150 brushes
    702 visible faces
    197 non-visible faces
    2,478 nodes
      936 non-visible nodes
    2,478 expensive split nodes
    2,479 leaves
    1,098 EMPTY leafs
    1,381 SOLID leafs
    2,479 leafs total
    31 max tree height
    15 avg tree height
    16 tiny portals
    10,506 tree portals
    615 outside leaves
    0 detail filled leafs
    16 tiny portals
    10,506 tree portals
    1,974 sides visible
    1,974 makefaces
      516 merged
      466 subdivided
    1,341 nodes pruned
    5 tiny portals
      483 player-occupiable leaves
      483 clusters of leaves
    1,549 vis portals
      655 SOLID leafs
      483 EMPTY leafs
    1,138 leafs total
    27 max tree height
    14 avg tree height
        1 edges degenerated
    1,755 edges added by tjunctions
    1,894 faces optimized through MWT
    5,587 triangles computed from MWT
      439 faces created via optimization of MWT triangles
    5,202 edges
    2,363 faces
Processing hull 1...
Processing hull 2...
WARNING: worldspawn at 0 0 0 has long value for key wad (length 280 >= 127)
Writing MultiplayerMap.bsp as Quake BSP bsp29
Wrote MultiplayerMap.bsp

count   lump name    byte size 
      1 models               64
    813 planes            16260
   2744 vertexes          32928
   1137 nodes             27288
     47 texinfos           1880
   2363 faces             47260
   2985 clipnodes         23880
    484 leafs             13552
   2837 marksurfaces       5674
   5203 edges             20812
  10343 surfedges         41372
      9 textures         179920
        lightdata             0
        visdata               0
        entdata            2109

0.252s seconds elapsed


